<?xml version="1.0" encoding="UTF-8"?>

<!-- generated on 2023-04-13 16:17:04 by Eclipse SUMO netedit Version 1.16.0
<configuration xmlns:xsi="http://www.w3.org/2001/XMLSchema-instance" xsi:noNamespaceSchemaLocation="http://sumo.dlr.de/xsd/netconvertConfiguration.xsd">

    <input>
        <sumocfg-file value="C:\Users\paulo\mestrado\pesquisa\ufc-cenario\osmWithStop.sumocfg"/>
        <route-files value="C:\Users\paulo\mestrado\pesquisa\ufc-cenario\osmWithStop.rou.xml"/>
        <sumo-net-file value="C:\Users\paulo\mestrado\pesquisa\ufc-cenario\osm.net.xml"/>
    </input>

    <output>
        <output-file value="C:\Users\paulo\mestrado\pesquisa\ufc-cenario\osm.net.xml"/>
        <output.street-names value="true"/>
    </output>

    <processing>
        <geometry.min-radius.fix.railways value="false"/>
        <geometry.max-grade.fix value="false"/>
        <offset.disable-normalization value="true"/>
        <lefthand value="0"/>
    </processing>

    <junctions>
        <no-turnarounds value="true"/>
        <junctions.corner-detail value="5"/>
        <junctions.limit-turn-speed value="5.50"/>
        <rectangular-lane-cut value="0"/>
    </junctions>

    <pedestrian>
        <walkingareas value="0"/>
    </pedestrian>

</configuration>
-->

<net version="1.16" junctionCornerDetail="5" limitTurnSpeed="5.50" xmlns:xsi="http://www.w3.org/2001/XMLSchema-instance" xsi:noNamespaceSchemaLocation="http://sumo.dlr.de/xsd/net_file.xsd">

    <location netOffset="-546109.09,415452.87" convBoundary="240.24,258.50,1751.53,2397.38" origBoundary="-38.584755,-3.758573,-38.560181,-3.736883" projParameter="+proj=utm +zone=24 +ellps=WGS84 +datum=WGS84 +units=m +no_defs"/>

    <type id="aerialway.cable_car" priority="24" numLanes="1" speed="13.89" allow="rail_urban" oneway="0"/>
    <type id="aerialway.gondola" priority="23" numLanes="1" speed="13.89" allow="rail_urban" oneway="0"/>
    <type id="highway.bridleway" priority="1" numLanes="1" speed="2.78" allow="pedestrian" oneway="1" width="2.00"/>
    <type id="highway.bus_guideway" priority="1" numLanes="1" speed="27.78" allow="bus" oneway="1"/>
    <type id="highway.cycleway" priority="1" numLanes="1" speed="5.56" allow="bicycle" oneway="0" width="1.00"/>
    <type id="highway.footway" priority="1" numLanes="1" speed="2.78" allow="pedestrian" oneway="1" width="2.00"/>
    <type id="highway.ford" priority="1" numLanes="1" speed="2.78" allow="army" oneway="0"/>
    <type id="highway.living_street" priority="2" numLanes="1" speed="2.78" disallow="tram rail_urban rail rail_electric rail_fast ship" oneway="0"/>
    <type id="highway.motorway" priority="14" numLanes="2" speed="39.44" allow="private emergency authority army vip passenger hov taxi bus coach delivery truck trailer motorcycle evehicle custom1 custom2" oneway="1"/>
    <type id="highway.motorway_link" priority="9" numLanes="1" speed="22.22" allow="private emergency authority army vip passenger hov taxi bus coach delivery truck trailer motorcycle evehicle custom1 custom2" oneway="1"/>
    <type id="highway.path" priority="1" numLanes="1" speed="5.56" allow="pedestrian bicycle" oneway="0" width="2.00"/>
    <type id="highway.pedestrian" priority="1" numLanes="1" speed="2.78" allow="pedestrian" oneway="1" width="2.00"/>
    <type id="highway.primary" priority="12" numLanes="2" speed="27.78" disallow="tram rail_urban rail rail_electric rail_fast ship" oneway="0"/>
    <type id="highway.primary_link" priority="7" numLanes="1" speed="22.22" disallow="tram rail_urban rail rail_electric rail_fast ship" oneway="0"/>
    <type id="highway.raceway" priority="15" numLanes="2" speed="83.33" allow="vip" oneway="0"/>
    <type id="highway.residential" priority="3" numLanes="1" speed="13.89" disallow="tram rail_urban rail rail_electric rail_fast ship" oneway="0"/>
    <type id="highway.secondary" priority="11" numLanes="1" speed="27.78" disallow="tram rail_urban rail rail_electric rail_fast ship" oneway="0"/>
    <type id="highway.secondary_link" priority="6" numLanes="1" speed="22.22" disallow="tram rail_urban rail rail_electric rail_fast ship" oneway="0"/>
    <type id="highway.service" priority="1" numLanes="1" speed="5.56" allow="pedestrian delivery bicycle" oneway="0"/>
    <type id="highway.stairs" priority="1" numLanes="1" speed="1.39" allow="pedestrian" oneway="1" width="2.00"/>
    <type id="highway.step" priority="1" numLanes="1" speed="1.39" allow="pedestrian" oneway="1" width="2.00"/>
    <type id="highway.steps" priority="1" numLanes="1" speed="1.39" allow="pedestrian" oneway="1" width="2.00"/>
    <type id="highway.tertiary" priority="10" numLanes="1" speed="22.22" disallow="tram rail_urban rail rail_electric rail_fast ship" oneway="0"/>
    <type id="highway.tertiary_link" priority="5" numLanes="1" speed="22.22" disallow="tram rail_urban rail rail_electric rail_fast ship" oneway="0"/>
    <type id="highway.track" priority="1" numLanes="1" speed="5.56" allow="pedestrian motorcycle moped bicycle" oneway="0"/>
    <type id="highway.trunk" priority="13" numLanes="2" speed="27.78" disallow="pedestrian bicycle tram rail_urban rail rail_electric rail_fast ship" oneway="0"/>
    <type id="highway.trunk_link" priority="8" numLanes="1" speed="22.22" disallow="pedestrian bicycle tram rail_urban rail rail_electric rail_fast ship" oneway="0"/>
    <type id="highway.unclassified" priority="4" numLanes="1" speed="13.89" disallow="tram rail_urban rail rail_electric rail_fast ship" oneway="0"/>
    <type id="highway.unsurfaced" priority="1" numLanes="1" speed="8.33" disallow="tram rail_urban rail rail_electric rail_fast ship" oneway="0"/>
    <type id="railway.highspeed" priority="21" numLanes="1" speed="69.44" allow="rail_fast" oneway="1"/>
    <type id="railway.light_rail" priority="19" numLanes="1" speed="27.78" allow="rail_urban" oneway="1"/>
    <type id="railway.monorail" priority="22" numLanes="1" speed="27.78" allow="rail_urban" oneway="1"/>
    <type id="railway.preserved" priority="16" numLanes="1" speed="27.78" allow="rail" oneway="1"/>
    <type id="railway.rail" priority="20" numLanes="1" speed="44.44" allow="rail" oneway="1"/>
    <type id="railway.subway" priority="18" numLanes="1" speed="27.78" allow="rail_urban" oneway="1"/>
    <type id="railway.tram" priority="17" numLanes="1" speed="13.89" allow="tram" oneway="1"/>

    <edge id=":1715055080_0" function="internal">
        <lane id=":1715055080_0_0" index="0" disallow="tram rail_urban rail rail_electric rail_fast ship" speed="6.52" length="8.44" shape="1081.98,1918.04 1084.23,1918.46 1086.13,1918.10 1087.68,1916.94 1088.89,1915.00"/>
    </edge>
    <edge id=":1715055080_1" function="internal">
        <lane id=":1715055080_1_0" index="0" disallow="tram rail_urban rail rail_electric rail_fast ship" speed="8.05" length="8.54" shape="1085.77,1927.66 1085.06,1925.24 1084.01,1923.34 1082.65,1921.95 1080.96,1921.07"/>
    </edge>
    <edge id=":1715055080_2" function="internal">
        <lane id=":1715055080_2_0" index="0" disallow="tram rail_urban rail rail_electric rail_fast ship" speed="11.11" length="13.29" shape="1085.77,1927.66 1085.55,1924.26 1086.19,1921.21 1087.41,1918.22 1088.89,1915.00"/>
    </edge>
    <edge id=":1715055141_0" function="internal">
        <lane id=":1715055141_0_0" index="0" disallow="pedestrian tram rail_urban rail rail_electric rail_fast ship" speed="11.11" length="18.49" shape="1093.15,1606.44 1089.66,1602.06 1087.56,1598.77 1086.32,1595.10 1085.40,1589.62"/>
        <lane id=":1715055141_0_1" index="1" disallow="pedestrian tram rail_urban rail rail_electric rail_fast ship" speed="11.11" length="18.49" shape="1096.18,1605.11 1092.82,1600.96 1090.74,1597.85 1089.48,1594.40 1088.57,1589.19"/>
    </edge>
    <edge id=":1715055141_2" function="internal">
        <lane id=":1715055141_2_0" index="0" disallow="pedestrian tram rail_urban rail rail_electric rail_fast ship" speed="11.11" length="19.78" shape="1087.48,1609.28 1087.36,1605.47 1086.95,1601.24 1086.29,1596.12 1085.40,1589.62"/>
    </edge>
    <edge id=":1715055143_0" function="internal">
        <lane id=":1715055143_0_0" index="0" disallow="pedestrian tram rail_urban rail rail_electric rail_fast ship" speed="11.11" length="16.52" shape="1151.63,1591.32 1149.04,1593.71 1146.67,1596.31 1144.12,1599.55 1140.95,1603.87"/>
    </edge>
    <edge id=":1715055143_1" function="internal">
        <lane id=":1715055143_1_0" index="0" disallow="pedestrian tram rail_urban rail rail_electric rail_fast ship" speed="11.11" length="16.59" shape="1146.46,1588.14 1145.89,1593.14 1145.18,1596.57 1143.74,1599.72 1140.95,1603.87"/>
        <lane id=":1715055143_1_1" index="1" disallow="pedestrian tram rail_urban rail rail_electric rail_fast ship" speed="11.11" length="16.59" shape="1143.38,1586.95 1142.87,1591.72 1142.27,1595.02 1140.97,1598.04 1138.36,1602.00"/>
    </edge>
    <edge id=":1715055145_0" function="internal">
        <lane id=":1715055145_0_0" index="0" disallow="tram rail_urban rail rail_electric rail_fast ship" speed="6.31" length="9.04" shape="715.13,1593.52 713.25,1591.85 711.34,1591.25 709.38,1591.71 707.39,1593.24"/>
    </edge>
    <edge id=":1715055145_1" function="internal">
        <lane id=":1715055145_1_0" index="0" disallow="tram rail_urban rail rail_electric rail_fast ship" speed="11.11" length="13.93" shape="715.13,1593.52 712.89,1590.72 710.99,1587.91 709.39,1584.94 708.06,1581.62"/>
    </edge>
    <edge id=":1715055145_2" function="internal">
        <lane id=":1715055145_2_0" index="0" disallow="tram rail_urban rail rail_electric rail_fast ship" speed="3.65" length="4.67" shape="715.13,1593.52 714.97,1592.09 715.32,1591.26 716.19,1591.05 717.58,1591.45"/>
    </edge>
    <edge id=":1715055145_3" function="internal">
        <lane id=":1715055145_3_0" index="0" disallow="tram rail_urban rail rail_electric rail_fast ship" speed="11.11" length="12.75" shape="711.09,1580.58 712.33,1583.74 713.73,1586.36 715.43,1588.81 717.58,1591.45"/>
    </edge>
    <edge id=":1715055145_4" function="internal">
        <lane id=":1715055145_4_0" index="0" disallow="tram rail_urban rail rail_electric rail_fast ship" speed="9.77" length="13.92" shape="711.09,1580.58 711.70,1583.84 711.29,1587.04 709.85,1590.17 707.39,1593.24"/>
    </edge>
    <edge id=":1715055145_5" function="internal">
        <lane id=":1715055145_5_0" index="0" disallow="tram rail_urban rail rail_electric rail_fast ship" speed="3.65" length="4.67" shape="711.09,1580.58 710.72,1581.98 710.09,1582.62 709.21,1582.49 708.06,1581.62"/>
    </edge>
    <edge id=":1715055145_6" function="internal">
        <lane id=":1715055145_6_0" index="0" disallow="tram rail_urban rail rail_electric rail_fast ship" speed="8.50" length="10.38" shape="705.10,1591.00 707.00,1588.67 708.12,1586.32 708.48,1583.97 708.06,1581.62"/>
    </edge>
    <edge id=":1715055145_7" function="internal">
        <lane id=":1715055145_7_0" index="0" disallow="tram rail_urban rail rail_electric rail_fast ship" speed="7.84" length="14.56" shape="705.10,1591.00 708.31,1588.55 711.46,1587.80 714.55,1588.77 717.58,1591.45"/>
    </edge>
    <edge id=":1715055145_8" function="internal">
        <lane id=":1715055145_8_0" index="0" disallow="tram rail_urban rail rail_electric rail_fast ship" speed="3.65" length="4.67" shape="705.10,1591.00 706.51,1590.70 707.36,1590.98 707.66,1591.82 707.39,1593.24"/>
    </edge>
    <edge id=":1715055163_0" function="internal">
        <lane id=":1715055163_0_0" index="0" disallow="tram rail_urban rail rail_electric rail_fast ship" speed="11.11" length="8.10" shape="1182.04,1569.40 1179.90,1570.47 1178.27,1570.91 1176.69,1571.43 1174.70,1572.71"/>
    </edge>
    <edge id=":1715055168_0" function="internal">
        <lane id=":1715055168_0_0" index="0" disallow="pedestrian tram rail_urban rail rail_electric rail_fast ship" speed="11.11" length="2.86" shape="1119.58,1556.52 1120.58,1556.53 1121.28,1556.50 1121.96,1556.57 1122.91,1556.85"/>
        <lane id=":1715055168_0_1" index="1" disallow="pedestrian tram rail_urban rail rail_electric rail_fast ship" speed="11.11" length="2.86" shape="1119.41,1559.72 1120.11,1559.70 1120.60,1559.65 1121.07,1559.65 1121.73,1559.82"/>
    </edge>
    <edge id=":1715055193_0" function="internal">
        <lane id=":1715055193_0_0" index="0" disallow="tram rail_urban rail rail_electric rail_fast ship" speed="11.11" length="9.58" shape="1048.62,1533.74 1039.48,1530.59"/>
        <lane id=":1715055193_0_1" index="1" disallow="tram rail_urban rail rail_electric rail_fast ship" speed="11.11" length="9.58" shape="1049.58,1530.69 1040.60,1527.60"/>
    </edge>
    <edge id=":1715055193_2" function="internal">
        <lane id=":1715055193_2_0" index="0" disallow="tram rail_urban rail rail_electric rail_fast ship" speed="6.09" length="7.86" shape="1049.58,1530.69 1047.00,1529.67 1045.30,1528.50 1044.49,1527.18 1044.56,1525.70"/>
    </edge>
    <edge id=":1715055193_3" function="internal">
        <lane id=":1715055193_3_0" index="0" disallow="tram rail_urban rail rail_electric rail_fast ship" speed="6.04" length="7.88" shape="1047.60,1526.70 1046.77,1527.93 1045.33,1528.49 1043.28,1528.38 1040.60,1527.60"/>
    </edge>
    <edge id=":1715055193_4" function="internal">
        <lane id=":1715055193_4_0" index="0" disallow="tram rail_urban rail rail_electric rail_fast ship" speed="3.65" length="4.67" shape="1047.60,1526.70 1046.46,1527.59 1045.58,1527.72 1044.94,1527.09 1044.56,1525.70"/>
    </edge>
    <edge id=":1715055203_0" function="internal">
        <lane id=":1715055203_0_0" index="0" disallow="tram rail_urban rail rail_electric rail_fast ship" speed="7.60" length="6.58" shape="770.05,1421.32 768.89,1420.52 767.47,1420.06 765.77,1419.93 763.81,1420.15"/>
    </edge>
    <edge id=":1715055203_1" function="internal">
        <lane id=":1715055203_1_0" index="0" disallow="tram rail_urban rail rail_electric rail_fast ship" speed="11.11" length="6.76" shape="770.05,1421.32 768.60,1419.85 767.70,1418.76 766.87,1417.60 765.61,1415.96"/>
        <lane id=":1715055203_1_1" index="1" disallow="tram rail_urban rail rail_electric rail_fast ship" speed="11.11" length="6.76" shape="772.25,1419.00 770.89,1417.62 770.06,1416.59 769.28,1415.50 768.10,1413.95"/>
    </edge>
    <edge id=":1715055204_0" function="internal">
        <lane id=":1715055204_0_0" index="0" disallow="tram rail_urban rail rail_electric rail_fast ship" speed="11.11" length="16.08" shape="760.07,1407.78 758.09,1403.24 756.72,1400.08 755.89,1396.81 755.53,1391.94"/>
        <lane id=":1715055204_0_1" index="1" disallow="tram rail_urban rail rail_electric rail_fast ship" speed="11.11" length="16.08" shape="763.04,1406.58 761.18,1402.36 759.88,1399.43 759.08,1396.40 758.73,1391.86"/>
    </edge>
    <edge id=":1715055204_2" function="internal">
        <lane id=":1715055204_2_0" index="0" disallow="tram rail_urban rail rail_electric rail_fast ship" speed="11.11" length="16.36" shape="754.72,1408.24 755.25,1404.77 755.54,1401.31 755.61,1397.24 755.53,1391.94"/>
    </edge>
    <edge id=":1715055233_0" function="internal">
        <lane id=":1715055233_0_0" index="0" disallow="tram rail_urban rail rail_electric rail_fast ship" speed="8.33" length="14.08" shape="1059.63,1337.90 1057.10,1351.75"/>
    </edge>
    <edge id=":1715055233_1" function="internal">
        <lane id=":1715055233_1_0" index="0" disallow="tram rail_urban rail rail_electric rail_fast ship" speed="7.84" length="14.57" shape="1059.63,1337.90 1058.21,1341.69 1055.92,1343.99 1052.79,1344.79 1048.80,1344.11"/>
    </edge>
    <edge id=":1715055233_2" function="internal">
        <lane id=":1715055233_2_0" index="0" disallow="tram rail_urban rail rail_electric rail_fast ship" speed="3.65" length="4.67" shape="1059.63,1337.90 1058.59,1338.90 1057.73,1339.12 1057.03,1338.56 1056.51,1337.22"/>
    </edge>
    <edge id=":1715055233_3" function="internal">
        <lane id=":1715055233_3_0" index="0" disallow="tram rail_urban rail rail_electric rail_fast ship" speed="6.31" length="9.04" shape="1049.79,1341.06 1052.26,1341.49 1054.21,1340.99 1055.62,1339.57 1056.51,1337.22"/>
    </edge>
    <edge id=":1715055233_4" function="internal">
        <lane id=":1715055233_4_0" index="0" disallow="tram rail_urban rail rail_electric rail_fast ship" speed="8.33" length="14.27" shape="1049.79,1341.06 1053.41,1342.76 1055.83,1345.11 1057.06,1348.10 1057.10,1351.75"/>
    </edge>
    <edge id=":1715055233_5" function="internal">
        <lane id=":1715055233_5_0" index="0" disallow="tram rail_urban rail rail_electric rail_fast ship" speed="3.65" length="4.67" shape="1049.79,1341.06 1050.68,1342.19 1050.81,1343.08 1050.19,1343.72 1048.80,1344.11"/>
    </edge>
    <edge id=":1715055233_6" function="internal">
        <lane id=":1715055233_6_0" index="0" disallow="tram rail_urban rail rail_electric rail_fast ship" speed="7.18" length="9.73" shape="1053.93,1351.31 1053.89,1348.87 1053.02,1346.86 1051.32,1345.27 1048.80,1344.11"/>
    </edge>
    <edge id=":1715055233_7" function="internal">
        <lane id=":1715055233_7_0" index="0" disallow="tram rail_urban rail rail_electric rail_fast ship" speed="8.33" length="14.33" shape="1053.93,1351.31 1056.51,1337.22"/>
    </edge>
    <edge id=":1715055233_8" function="internal">
        <lane id=":1715055233_8_0" index="0" disallow="tram rail_urban rail rail_electric rail_fast ship" speed="3.65" length="4.67" shape="1053.93,1351.31 1054.89,1350.23 1055.74,1349.95 1056.48,1350.45 1057.10,1351.75"/>
    </edge>
    <edge id=":1715055237_0" function="internal">
        <lane id=":1715055237_0_0" index="0" allow="pedestrian delivery bicycle" speed="5.01" length="5.04" shape="764.17,1339.69 765.53,1339.96 766.64,1339.72 767.49,1338.97 768.08,1337.71"/>
    </edge>
    <edge id=":1715055237_1" function="internal">
        <lane id=":1715055237_1_0" index="0" allow="pedestrian delivery bicycle" speed="3.65" length="4.67" shape="764.17,1339.69 765.04,1340.84 765.16,1341.73 764.52,1342.35 763.12,1342.72"/>
    </edge>
    <edge id=":1715055237_2" function="internal">
        <lane id=":1715055237_2_0" index="0" allow="pedestrian delivery bicycle" speed="5.12" length="5.11" shape="765.23,1346.70 765.45,1345.35 765.18,1344.24 764.40,1343.36 763.12,1342.72"/>
    </edge>
    <edge id=":1715055237_3" function="internal">
        <lane id=":1715055237_3_0" index="0" disallow="tram rail_urban rail rail_electric rail_fast ship" speed="11.11" length="9.45" shape="765.23,1346.70 768.08,1337.71"/>
        <lane id=":1715055237_3_1" index="1" disallow="tram rail_urban rail rail_electric rail_fast ship" speed="11.11" length="9.45" shape="768.27,1347.69 771.14,1338.66"/>
    </edge>
    <edge id=":1715055253_0" function="internal">
        <lane id=":1715055253_0_0" index="0" disallow="tram rail_urban rail rail_electric rail_fast ship" speed="11.11" length="14.42" shape="806.20,1262.09 795.02,1252.99"/>
    </edge>
    <edge id=":1715055253_1" function="internal">
        <lane id=":1715055253_1_0" index="0" disallow="tram rail_urban rail rail_electric rail_fast ship" speed="6.91" length="2.89" shape="806.20,1262.09 804.43,1260.09 804.39,1259.88"/>
    </edge>
    <edge id=":1715055253_2" function="internal">
        <lane id=":1715055253_2_0" index="0" disallow="tram rail_urban rail rail_electric rail_fast ship" speed="3.65" length="1.44" shape="806.20,1262.09 805.71,1260.73"/>
    </edge>
    <edge id=":1715055253_10" function="internal">
        <lane id=":1715055253_10_0" index="0" disallow="tram rail_urban rail rail_electric rail_fast ship" speed="6.91" length="8.77" shape="804.39,1259.88 804.08,1257.79 805.16,1255.18 807.67,1252.27"/>
    </edge>
    <edge id=":1715055253_11" function="internal">
        <lane id=":1715055253_11_0" index="0" disallow="tram rail_urban rail rail_electric rail_fast ship" speed="3.65" length="3.23" shape="805.71,1260.73 805.87,1259.85 806.67,1259.45 808.11,1259.52"/>
    </edge>
    <edge id=":1715055253_3" function="internal">
        <lane id=":1715055253_3_0" index="0" disallow="tram rail_urban rail rail_electric rail_fast ship" speed="7.04" length="9.08" shape="797.20,1250.61 799.36,1251.71 801.46,1251.96 803.49,1251.38 805.46,1249.95"/>
    </edge>
    <edge id=":1715055253_4" function="internal">
        <lane id=":1715055253_4_0" index="0" disallow="tram rail_urban rail rail_electric rail_fast ship" speed="11.11" length="14.08" shape="797.20,1250.61 808.11,1259.52"/>
    </edge>
    <edge id=":1715055253_5" function="internal">
        <lane id=":1715055253_5_0" index="0" disallow="tram rail_urban rail rail_electric rail_fast ship" speed="3.66" length="1.46" shape="797.20,1250.61 797.55,1252.03"/>
    </edge>
    <edge id=":1715055253_12" function="internal">
        <lane id=":1715055253_12_0" index="0" disallow="tram rail_urban rail rail_electric rail_fast ship" speed="3.66" length="3.26" shape="797.55,1252.03 797.30,1252.89 796.46,1253.22 795.02,1252.99"/>
    </edge>
    <edge id=":1715055253_6" function="internal">
        <lane id=":1715055253_6_0" index="0" disallow="tram rail_urban rail rail_electric rail_fast ship" speed="6.66" length="9.43" shape="795.80,1261.26 797.09,1258.77 797.39,1256.57 796.70,1254.64 795.02,1252.99"/>
    </edge>
    <edge id=":1715055253_7" function="internal">
        <lane id=":1715055253_7_0" index="0" disallow="tram rail_urban rail rail_electric rail_fast ship" speed="11.11" length="14.58" shape="795.80,1261.26 798.32,1257.62 800.18,1255.22 802.27,1253.02 805.46,1249.95"/>
        <lane id=":1715055253_7_1" index="1" disallow="tram rail_urban rail rail_electric rail_fast ship" speed="11.11" length="14.58" shape="798.45,1263.06 800.85,1259.59 802.62,1257.30 804.62,1255.20 807.67,1252.27"/>
    </edge>
    <edge id=":1715055253_9" function="internal">
        <lane id=":1715055253_9_0" index="0" disallow="tram rail_urban rail rail_electric rail_fast ship" speed="7.22" length="11.73" shape="798.45,1263.06 800.86,1260.17 803.28,1258.62 805.70,1258.40 808.11,1259.52"/>
    </edge>
    <edge id=":1715055277_0" function="internal">
        <lane id=":1715055277_0_0" index="0" disallow="tram rail_urban rail rail_electric rail_fast ship" speed="6.48" length="9.03" shape="990.22,1183.91 989.80,1186.36 990.27,1188.34 991.63,1189.86 993.87,1190.92"/>
    </edge>
    <edge id=":1715055277_1" function="internal">
        <lane id=":1715055277_1_0" index="0" disallow="tram rail_urban rail rail_electric rail_fast ship" speed="3.65" length="4.67" shape="990.22,1183.91 989.09,1184.81 988.21,1184.95 987.57,1184.32 987.18,1182.93"/>
    </edge>
    <edge id=":1715055277_2" function="internal">
        <lane id=":1715055277_2_0" index="0" disallow="tram rail_urban rail rail_electric rail_fast ship" speed="6.56" length="9.10" shape="980.11,1186.69 982.55,1187.07 984.54,1186.57 986.08,1185.19 987.18,1182.93"/>
    </edge>
    <edge id=":1715055277_3" function="internal">
        <lane id=":1715055277_3_0" index="0" disallow="tram rail_urban rail rail_electric rail_fast ship" speed="11.11" length="14.40" shape="980.11,1186.69 993.87,1190.92"/>
        <lane id=":1715055277_3_1" index="1" disallow="tram rail_urban rail rail_electric rail_fast ship" speed="11.11" length="14.40" shape="979.17,1189.75 992.94,1193.98"/>
    </edge>
    <edge id=":1715055281_0" function="internal">
        <lane id=":1715055281_0_0" index="0" allow="pedestrian delivery bicycle" speed="8.33" length="18.77" shape="913.71,1167.72 932.01,1171.90"/>
    </edge>
    <edge id=":1715055281_1" function="internal">
        <lane id=":1715055281_1_0" index="0" disallow="tram rail_urban rail rail_electric rail_fast ship" speed="11.11" length="18.67" shape="913.16,1171.47 918.77,1170.53 922.70,1170.10 926.57,1170.46 932.01,1171.90"/>
        <lane id=":1715055281_1_1" index="1" disallow="tram rail_urban rail rail_electric rail_fast ship" speed="11.11" length="18.67" shape="913.18,1174.71 918.50,1173.79 922.23,1173.33 925.91,1173.62 931.07,1174.96"/>
    </edge>
    <edge id=":1787532774_0" function="internal">
        <lane id=":1787532774_0_0" index="0" disallow="tram rail_urban rail rail_electric rail_fast ship" speed="6.21" length="5.65" shape="1714.29,1915.37 1715.57,1916.12 1716.48,1917.11 1717.02,1918.34 1717.20,1919.81"/>
    </edge>
    <edge id=":1787532774_1" function="internal">
        <lane id=":1787532774_1_0" index="0" disallow="tram rail_urban rail rail_electric rail_fast ship" speed="3.65" length="4.67" shape="1714.29,1915.37 1715.08,1916.58 1715.13,1917.47 1714.45,1918.05 1713.03,1918.31"/>
    </edge>
    <edge id=":1787532774_2" function="internal">
        <lane id=":1787532774_2_0" index="0" disallow="tram rail_urban rail rail_electric rail_fast ship" speed="3.97" length="1.88" shape="1714.00,1919.79 1713.94,1919.30 1713.76,1918.89 1713.45,1918.56 1713.03,1918.31"/>
    </edge>
    <edge id=":1787532774_3" function="internal">
        <lane id=":1787532774_3_0" index="0" disallow="tram rail_urban rail rail_electric rail_fast ship" speed="3.65" length="4.67" shape="1714.00,1919.79 1714.80,1918.60 1715.61,1918.20 1716.40,1918.61 1717.20,1919.81"/>
    </edge>
    <edge id=":186583491#0-AddedOffRampNode_0" function="internal">
        <lane id=":186583491#0-AddedOffRampNode_0_0" index="0" disallow="tram rail_urban rail rail_electric rail_fast ship" speed="22.22" length="8.27" shape="1715.90,2354.88 1715.28,2352.44 1714.11,2350.96 1712.93,2349.48 1712.31,2347.05"/>
        <lane id=":186583491#0-AddedOffRampNode_0_1" index="1" disallow="tram rail_urban rail rail_electric rail_fast ship" speed="22.22" length="8.27" shape="1715.90,2354.88 1715.51,2346.89"/>
        <lane id=":186583491#0-AddedOffRampNode_0_2" index="2" disallow="tram rail_urban rail rail_electric rail_fast ship" speed="22.22" length="8.27" shape="1719.10,2354.71 1718.70,2346.72"/>
    </edge>
    <edge id=":2021751118_0" function="internal">
        <lane id=":2021751118_0_0" index="0" disallow="tram rail_urban rail rail_electric rail_fast ship" speed="11.11" length="9.65" shape="1117.51,1903.52 1118.84,1906.06 1119.72,1907.81 1120.70,1909.51 1122.31,1911.88"/>
    </edge>
    <edge id=":2021751118_1" function="internal">
        <lane id=":2021751118_1_0" index="0" disallow="tram rail_urban rail rail_electric rail_fast ship" speed="11.11" length="9.77" shape="1114.51,1906.51 1117.26,1907.37 1119.08,1908.25 1120.57,1909.60 1122.31,1911.88"/>
    </edge>
    <edge id=":2021751119_0" function="internal">
        <lane id=":2021751119_0_0" index="0" disallow="tram rail_urban rail rail_electric rail_fast ship" speed="6.72" length="9.61" shape="1361.47,2101.11 1363.73,2102.07 1365.84,2101.99 1367.80,2100.88 1369.60,2098.74"/>
        <lane id=":2021751119_0_1" index="1" disallow="tram rail_urban rail rail_electric rail_fast ship" speed="7.50" length="12.22" shape="1361.47,2101.11 1364.91,2102.81 1367.86,2103.28 1370.32,2102.50 1372.28,2100.48"/>
    </edge>
    <edge id=":2021751119_2" function="internal">
        <lane id=":2021751119_2_0" index="0" disallow="tram rail_urban rail rail_electric rail_fast ship" speed="11.11" length="14.67" shape="1361.47,2101.11 1364.65,2102.99 1367.88,2104.67 1371.19,2106.17 1374.63,2107.53"/>
    </edge>
    <edge id=":2021751163_0" function="internal">
        <lane id=":2021751163_0_0" index="0" disallow="tram rail_urban rail rail_electric rail_fast ship" speed="11.11" length="7.83" shape="1121.80,1946.07 1119.48,1945.77 1117.88,1945.52 1116.30,1945.52 1114.05,1945.97"/>
    </edge>
    <edge id=":2021751163_1" function="internal">
        <lane id=":2021751163_1_0" index="0" disallow="tram rail_urban rail rail_electric rail_fast ship" speed="11.11" length="7.83" shape="1120.81,1942.18 1118.92,1943.53 1117.63,1944.51 1116.23,1945.26 1114.05,1945.97"/>
    </edge>
    <edge id=":2021751175_0" function="internal">
        <lane id=":2021751175_0_0" index="0" allow="pedestrian bicycle" speed="5.37" length="11.09" width="2.00" shape="1506.18,2161.37 1503.06,2159.41 1502.26,2157.92 1503.77,2156.89 1507.60,2156.32"/>
    </edge>
    <edge id=":2021751175_1" function="internal">
        <lane id=":2021751175_1_0" index="0" allow="pedestrian bicycle" speed="2.89" length="2.92" width="2.00" shape="1506.18,2161.37 1505.74,2160.58 1505.75,2160.02 1506.20,2159.69 1507.09,2159.59"/>
    </edge>
    <edge id=":2021751175_2" function="internal">
        <lane id=":2021751175_2_0" index="0" disallow="tram rail_urban rail rail_electric rail_fast ship" speed="11.11" length="10.82" shape="1496.79,2156.85 1507.60,2156.32"/>
    </edge>
    <edge id=":2021751175_3" function="internal">
        <lane id=":2021751175_3_0" index="0" allow="pedestrian bicycle" speed="8.33" length="10.82" width="2.00" shape="1496.79,2156.85 1499.89,2156.97 1502.15,2157.37 1504.31,2158.20 1507.09,2159.59"/>
    </edge>
    <edge id=":2021816252_0" function="internal">
        <lane id=":2021816252_0_0" index="0" disallow="tram rail_urban rail rail_electric rail_fast ship" speed="7.35" length="9.74" shape="1448.93,2183.95 1447.54,2182.32 1445.63,2181.43 1443.18,2181.27 1440.20,2181.84"/>
    </edge>
    <edge id=":2021816252_1" function="internal">
        <lane id=":2021816252_1_0" index="0" disallow="tram rail_urban rail rail_electric rail_fast ship" speed="11.11" length="14.84" shape="1448.93,2183.95 1447.00,2180.76 1444.90,2177.73 1442.63,2174.82 1440.18,2172.01"/>
    </edge>
    <edge id=":2021816252_2" function="internal">
        <lane id=":2021816252_2_0" index="0" disallow="tram rail_urban rail rail_electric rail_fast ship" speed="13.89" length="12.49" shape="1449.48,2173.86 1447.36,2176.53 1445.44,2178.77 1443.23,2180.55 1440.20,2181.84"/>
    </edge>